echo "running cmd for gzip"
./Run.pl -db ./bench.db -dir results/gzip_project_gshare_256KB -benchmark gzip -sim /u/greggbyr/Documents/ece587/simulator/ss3/sim-outorder -args "-fastfwd 50000000 -max:inst 10000000 -bpred 2lev -bpred:2lev 1 262144 18 1" >& results/ece587_project_gzip_gshare_256KB.txt
echo "running cmd for vpr"
./Run.pl -db ./bench.db -dir results/vpr_project_gshare_256KB -benchmark vpr -sim /u/greggbyr/Documents/ece587/simulator/ss3/sim-outorder -args "-fastfwd 50000000 -max:inst 10000000 -bpred 2lev -bpred:2lev 1 262144 18 1" >& results/ece587_project_vpr_gshare_256KB.txt
echo "running cmd for gcc2k"
./Run.pl -db ./bench.db -dir results/gcc2k_project_gshare_256KB -benchmark gcc2k -sim /u/greggbyr/Documents/ece587/simulator/ss3/sim-outorder -args "-fastfwd 50000000 -max:inst 10000000 -bpred 2lev -bpred:2lev 1 262144 18 1" >& results/ece587_project_gcc2k_gshare_256KB.txt
echo "running cmd for mcf"
./Run.pl -db ./bench.db -dir results/mcf_project_gshare_256KB -benchmark mcf -sim /u/greggbyr/Documents/ece587/simulator/ss3/sim-outorder -args "-fastfwd 50000000 -max:inst 10000000 -bpred 2lev -bpred:2lev 1 262144 18 1" >& results/ece587_project_mcf_gshare_256KB.txt
echo "running cmd for crafty"
./Run.pl -db ./bench.db -dir results/crafty_project_gshare_256KB -benchmark crafty -sim /u/greggbyr/Documents/ece587/simulator/ss3/sim-outorder -args "-fastfwd 50000000 -max:inst 10000000 -bpred 2lev -bpred:2lev 1 262144 18 1" >& results/ece587_project_crafty_gshare_256KB.txt
echo "running cmd for go"
./Run.pl -db ./bench.db -dir results/go_project_gshare_256KB -benchmark go -sim /u/greggbyr/Documents/ece587/simulator/ss3/sim-outorder -args "-fastfwd 50000000 -max:inst 10000000 -bpred 2lev -bpred:2lev 1 262144 18 1" >& results/ece587_project_go_gshare_256KB.txt
echo "running cmd for gcc"
./Run.pl -db ./bench.db -dir results/gcc_project_gshare_256KB -benchmark gcc -sim /u/greggbyr/Documents/ece587/simulator/ss3/sim-outorder -args "-fastfwd 50000000 -max:inst 10000000 -bpred 2lev -bpred:2lev 1 262144 18 1" >& results/ece587_project_gcc_gshare_256KB.txt
echo "running cmd for m88ksim"
./Run.pl -db ./bench.db -dir results/m88ksim_project_gshare_256KB -benchmark m88ksim -sim /u/greggbyr/Documents/ece587/simulator/ss3/sim-outorder -args "-fastfwd 50000000 -max:inst 10000000 -bpred 2lev -bpred:2lev 1 262144 18 1" >& results/ece587_project_m88ksim_gshare_256KB.txt
echo "running cmd for compress"
./Run.pl -db ./bench.db -dir results/compress_project_gshare_256KB -benchmark compress -sim /u/greggbyr/Documents/ece587/simulator/ss3/sim-outorder -args "-fastfwd 50000000 -max:inst 10000000 -bpred 2lev -bpred:2lev 1 262144 18 1" >& results/ece587_project_compress_gshare_256KB.txt
echo "running cmd for li"
./Run.pl -db ./bench.db -dir results/li_project_gshare_256KB -benchmark li -sim /u/greggbyr/Documents/ece587/simulator/ss3/sim-outorder -args "-fastfwd 50000000 -max:inst 10000000 -bpred 2lev -bpred:2lev 1 262144 18 1" >& results/ece587_project_li_gshare_256KB.txt
echo "running cmd for ijpeg"
./Run.pl -db ./bench.db -dir results/ijpeg_project_gshare_256KB -benchmark ijpeg -sim /u/greggbyr/Documents/ece587/simulator/ss3/sim-outorder -args "-fastfwd 50000000 -max:inst 10000000 -bpred 2lev -bpred:2lev 1 262144 18 1" >& results/ece587_project_ijpeg_gshare_256KB.txt
echo "running cmd for perl"
./Run.pl -db ./bench.db -dir results/perl_project_gshare_256KB -benchmark perl -sim /u/greggbyr/Documents/ece587/simulator/ss3/sim-outorder -args "-fastfwd 50000000 -max:inst 10000000 -bpred 2lev -bpred:2lev 1 262144 18 1" >& results/ece587_project_perl_gshare_256KB.txt
echo "running cmd for vortex"
./Run.pl -db ./bench.db -dir results/vortex_project_gshare_256KB -benchmark vortex -sim /u/greggbyr/Documents/ece587/simulator/ss3/sim-outorder -args "-fastfwd 50000000 -max:inst 10000000 -bpred 2lev -bpred:2lev 1 262144 18 1" >& results/ece587_project_vortex_gshare_256KB.txt
echo "running cmd for tomcatv"
./Run.pl -db ./bench.db -dir results/tomcatv_project_gshare_256KB -benchmark tomcatv -sim /u/greggbyr/Documents/ece587/simulator/ss3/sim-outorder -args "-fastfwd 50000000 -max:inst 10000000 -bpred 2lev -bpred:2lev 1 262144 18 1" >& results/ece587_project_tomcatv_gshare_256KB.txt
echo "running cmd for swim"
./Run.pl -db ./bench.db -dir results/swim_project_gshare_256KB -benchmark swim -sim /u/greggbyr/Documents/ece587/simulator/ss3/sim-outorder -args "-fastfwd 50000000 -max:inst 10000000 -bpred 2lev -bpred:2lev 1 262144 18 1" >& results/ece587_project_swim_gshare_256KB.txt
echo "running cmd for su2cor"
./Run.pl -db ./bench.db -dir results/su2cor_project_gshare_256KB -benchmark su2cor -sim /u/greggbyr/Documents/ece587/simulator/ss3/sim-outorder -args "-fastfwd 50000000 -max:inst 10000000 -bpred 2lev -bpred:2lev 1 262144 18 1" >& results/ece587_project_su2cor_gshare_256KB.txt
echo "running cmd for hydro2d"
./Run.pl -db ./bench.db -dir results/hydro2d_project_gshare_256KB -benchmark hydro2d -sim /u/greggbyr/Documents/ece587/simulator/ss3/sim-outorder -args "-fastfwd 50000000 -max:inst 10000000 -bpred 2lev -bpred:2lev 1 262144 18 1" >& results/ece587_project_hydro2d_gshare_256KB.txt
echo "running cmd for mgrid"
./Run.pl -db ./bench.db -dir results/mgrid_project_gshare_256KB -benchmark mgrid -sim /u/greggbyr/Documents/ece587/simulator/ss3/sim-outorder -args "-fastfwd 50000000 -max:inst 10000000 -bpred 2lev -bpred:2lev 1 262144 18 1" >& results/ece587_project_mgrid_gshare_256KB.txt
echo "running cmd for applu"
./Run.pl -db ./bench.db -dir results/applu_project_gshare_256KB -benchmark applu -sim /u/greggbyr/Documents/ece587/simulator/ss3/sim-outorder -args "-fastfwd 50000000 -max:inst 10000000 -bpred 2lev -bpred:2lev 1 262144 18 1" >& results/ece587_project_applu_gshare_256KB.txt
echo "running cmd for turb3d"
./Run.pl -db ./bench.db -dir results/turb3d_project_gshare_256KB -benchmark turb3d -sim /u/greggbyr/Documents/ece587/simulator/ss3/sim-outorder -args "-fastfwd 50000000 -max:inst 10000000 -bpred 2lev -bpred:2lev 1 262144 18 1" >& results/ece587_project_turb3d_gshare_256KB.txt
echo "running cmd for apsi"
./Run.pl -db ./bench.db -dir results/apsi_project_gshare_256KB -benchmark apsi -sim /u/greggbyr/Documents/ece587/simulator/ss3/sim-outorder -args "-fastfwd 50000000 -max:inst 10000000 -bpred 2lev -bpred:2lev 1 262144 18 1" >& results/ece587_project_apsi_gshare_256KB.txt




