echo "running cmd for gzip"
./Run.pl -db ./bench.db -dir results/gzip_project_tsbp_1MB -benchmark gzip -sim /u/greggbyr/Documents/ece587/proj_git/simulator/ss3/sim-outorder -args "-fastfwd 50000000 -max:inst 10000000 -bpred tsbp -bpred:tsbp 1 1048576 20 1 30" >& results/ece587_project_gzip_tsbp_1MB.txt
echo "running cmd for vpr"
./Run.pl -db ./bench.db -dir results/vpr_project_tsbp_1MB -benchmark vpr -sim /u/greggbyr/Documents/ece587/proj_git/simulator/ss3/sim-outorder -args "-fastfwd 50000000 -max:inst 10000000 -bpred tsbp -bpred:tsbp 1 1048576 20 1 30" >& results/ece587_project_vpr_tsbp_1MB.txt
echo "running cmd for gcc2k"
./Run.pl -db ./bench.db -dir results/gcc2k_project_tsbp_1MB -benchmark gcc2k -sim /u/greggbyr/Documents/ece587/proj_git/simulator/ss3/sim-outorder -args "-fastfwd 50000000 -max:inst 10000000 -bpred tsbp -bpred:tsbp 1 1048576 20 1 30" >& results/ece587_project_gcc2k_tsbp_1MB.txt
echo "running cmd for mcf"
./Run.pl -db ./bench.db -dir results/mcf_project_tsbp_1MB -benchmark mcf -sim /u/greggbyr/Documents/ece587/proj_git/simulator/ss3/sim-outorder -args "-fastfwd 50000000 -max:inst 10000000 -bpred tsbp -bpred:tsbp 1 1048576 20 1 30" >& results/ece587_project_mcf_tsbp_1MB.txt
echo "running cmd for crafty"
./Run.pl -db ./bench.db -dir results/crafty_project_tsbp_1MB -benchmark crafty -sim /u/greggbyr/Documents/ece587/proj_git/simulator/ss3/sim-outorder -args "-fastfwd 50000000 -max:inst 10000000 -bpred tsbp -bpred:tsbp 1 1048576 20 1 30" >& results/ece587_project_crafty_tsbp_1MB.txt
echo "running cmd for go"
./Run.pl -db ./bench.db -dir results/go_project_tsbp_1MB -benchmark go -sim /u/greggbyr/Documents/ece587/proj_git/simulator/ss3/sim-outorder -args "-fastfwd 50000000 -max:inst 10000000 -bpred tsbp -bpred:tsbp 1 1048576 20 1 30" >& results/ece587_project_go_tsbp_1MB.txt
echo "running cmd for gcc"
./Run.pl -db ./bench.db -dir results/gcc_project_tsbp_1MB -benchmark gcc -sim /u/greggbyr/Documents/ece587/proj_git/simulator/ss3/sim-outorder -args "-fastfwd 50000000 -max:inst 10000000 -bpred tsbp -bpred:tsbp 1 1048576 20 1 30" >& results/ece587_project_gcc_tsbp_1MB.txt
echo "running cmd for m88ksim"
./Run.pl -db ./bench.db -dir results/m88ksim_project_tsbp_1MB -benchmark m88ksim -sim /u/greggbyr/Documents/ece587/proj_git/simulator/ss3/sim-outorder -args "-fastfwd 50000000 -max:inst 10000000 -bpred tsbp -bpred:tsbp 1 1048576 20 1 30" >& results/ece587_project_m88ksim_tsbp_1MB.txt
echo "running cmd for compress"
./Run.pl -db ./bench.db -dir results/compress_project_tsbp_1MB -benchmark compress -sim /u/greggbyr/Documents/ece587/proj_git/simulator/ss3/sim-outorder -args "-fastfwd 50000000 -max:inst 10000000 -bpred tsbp -bpred:tsbp 1 1048576 20 1 30" >& results/ece587_project_compress_tsbp_1MB.txt
echo "running cmd for li"
./Run.pl -db ./bench.db -dir results/li_project_tsbp_1MB -benchmark li -sim /u/greggbyr/Documents/ece587/proj_git/simulator/ss3/sim-outorder -args "-fastfwd 50000000 -max:inst 10000000 -bpred tsbp -bpred:tsbp 1 1048576 20 1 30" >& results/ece587_project_li_tsbp_1MB.txt
echo "running cmd for ijpeg"
./Run.pl -db ./bench.db -dir results/ijpeg_project_tsbp_1MB -benchmark ijpeg -sim /u/greggbyr/Documents/ece587/proj_git/simulator/ss3/sim-outorder -args "-fastfwd 50000000 -max:inst 10000000 -bpred tsbp -bpred:tsbp 1 1048576 20 1 30" >& results/ece587_project_ijpeg_tsbp_1MB.txt
echo "running cmd for perl"
./Run.pl -db ./bench.db -dir results/perl_project_tsbp_1MB -benchmark perl -sim /u/greggbyr/Documents/ece587/proj_git/simulator/ss3/sim-outorder -args "-fastfwd 50000000 -max:inst 10000000 -bpred tsbp -bpred:tsbp 1 1048576 20 1 30" >& results/ece587_project_perl_tsbp_1MB.txt
echo "running cmd for vortex"
./Run.pl -db ./bench.db -dir results/vortex_project_tsbp_1MB -benchmark vortex -sim /u/greggbyr/Documents/ece587/proj_git/simulator/ss3/sim-outorder -args "-fastfwd 50000000 -max:inst 10000000 -bpred tsbp -bpred:tsbp 1 1048576 20 1 30" >& results/ece587_project_vortex_tsbp_1MB.txt
echo "running cmd for tomcatv"
./Run.pl -db ./bench.db -dir results/tomcatv_project_tsbp_1MB -benchmark tomcatv -sim /u/greggbyr/Documents/ece587/proj_git/simulator/ss3/sim-outorder -args "-fastfwd 50000000 -max:inst 10000000 -bpred tsbp -bpred:tsbp 1 1048576 20 1 30" >& results/ece587_project_tomcatv_tsbp_1MB.txt
echo "running cmd for swim"
./Run.pl -db ./bench.db -dir results/swim_project_tsbp_1MB -benchmark swim -sim /u/greggbyr/Documents/ece587/proj_git/simulator/ss3/sim-outorder -args "-fastfwd 50000000 -max:inst 10000000 -bpred tsbp -bpred:tsbp 1 1048576 20 1 30" >& results/ece587_project_swim_tsbp_1MB.txt
echo "running cmd for su2cor"
./Run.pl -db ./bench.db -dir results/su2cor_project_tsbp_1MB -benchmark su2cor -sim /u/greggbyr/Documents/ece587/proj_git/simulator/ss3/sim-outorder -args "-fastfwd 50000000 -max:inst 10000000 -bpred tsbp -bpred:tsbp 1 1048576 20 1 30" >& results/ece587_project_su2cor_tsbp_1MB.txt
echo "running cmd for hydro2d"
./Run.pl -db ./bench.db -dir results/hydro2d_project_tsbp_1MB -benchmark hydro2d -sim /u/greggbyr/Documents/ece587/proj_git/simulator/ss3/sim-outorder -args "-fastfwd 50000000 -max:inst 10000000 -bpred tsbp -bpred:tsbp 1 1048576 20 1 30" >& results/ece587_project_hydro2d_tsbp_1MB.txt
echo "running cmd for mgrid"
./Run.pl -db ./bench.db -dir results/mgrid_project_tsbp_1MB -benchmark mgrid -sim /u/greggbyr/Documents/ece587/proj_git/simulator/ss3/sim-outorder -args "-fastfwd 50000000 -max:inst 10000000 -bpred tsbp -bpred:tsbp 1 1048576 20 1 30" >& results/ece587_project_mgrid_tsbp_1MB.txt
echo "running cmd for applu"
./Run.pl -db ./bench.db -dir results/applu_project_tsbp_1MB -benchmark applu -sim /u/greggbyr/Documents/ece587/proj_git/simulator/ss3/sim-outorder -args "-fastfwd 50000000 -max:inst 10000000 -bpred tsbp -bpred:tsbp 1 1048576 20 1 30" >& results/ece587_project_applu_tsbp_1MB.txt
echo "running cmd for turb3d"
./Run.pl -db ./bench.db -dir results/turb3d_project_tsbp_1MB -benchmark turb3d -sim /u/greggbyr/Documents/ece587/proj_git/simulator/ss3/sim-outorder -args "-fastfwd 50000000 -max:inst 10000000 -bpred tsbp -bpred:tsbp 1 1048576 20 1 30" >& results/ece587_project_turb3d_tsbp_1MB.txt
echo "running cmd for apsi"
./Run.pl -db ./bench.db -dir results/apsi_project_tsbp_1MB -benchmark apsi -sim /u/greggbyr/Documents/ece587/proj_git/simulator/ss3/sim-outorder -args "-fastfwd 50000000 -max:inst 10000000 -bpred tsbp -bpred:tsbp 1 1048576 20 1 30" >& results/ece587_project_apsi_tsbp_1MB.txt




