reading benchmark database ./bench.db
Doing mcf
Installing mcf
ln -s /u/greggbyr/Documents/ece587/simulator/bench/little/mcf_alpha.ss run.mcf
Pre-run mcf
cp /u/greggbyr/Documents/ece587/simulator/input/ref/inp.in .
Run mcf
/u/greggbyr/Documents/ece587/simulator/ss3/sim-outorder -fastfwd 50000000 -max:inst 10000000 -bpred 2lev -bpred:2lev 1 65536 16 1 run.mcf inp.in > inp.out > inp.out
sim-outorder: SimpleScalar/PISA Tool Set version 3.0 of August, 2003.
Copyright (c) 1994-2003 by Todd M. Austin, Ph.D. and SimpleScalar, LLC.
All Rights Reserved. This version of SimpleScalar is licensed for academic
non-commercial use.  No portion of this work may be used by any commercial
entity, or for any commercial purpose, without the prior written permission
of SimpleScalar, LLC (info@simplescalar.com).

fatal: cannot open executable `run.mcf'
****** program returns ERROR 256
Post-run mcf
rm -f -r inp.in 
