reading benchmark database ./bench.db
Doing turb3d
Installing turb3d
ln -s /u/greggbyr/Documents/ece587/simulator/bench/little/turb3d.ss run.turb3d
Pre-run turb3d
cp /u/greggbyr/Documents/ece587/simulator/input/ref/turb3d.* .
cp: cannot stat '/u/greggbyr/Documents/ece587/simulator/input/ref/turb3d.*': No such file or directory
Run turb3d
/u/greggbyr/Documents/ece587/simulator/ss3/sim-outorder -fastfwd 50000000 -max:inst 10000000 -bpred 2lev -bpred:2lev 1 131072 17 1 run.turb3d  < turb3d.in > turb3d.out
sh: 1: cannot open turb3d.in: No such file
****** program returns ERROR 512
Post-run turb3d
rm -f -r turb3d.*
