reading benchmark database ./bench.db
Doing li
Installing li
ln -s /u/greggbyr/Documents/ece587/proj_git/simulator/bench/little/li.ss run.li
Pre-run li
cp /u/greggbyr/Documents/ece587/proj_git/simulator/input/ref/*.lsp .
Run li
/u/greggbyr/Documents/ece587/proj_git/simulator/ss3/sim-outorder -fastfwd 50000000 -max:inst 10000000 -bpred tsbp -bpred:tsbp 1 262144 18 1 30 run.li *.lsp > li.out
sim-outorder: SimpleScalar/PISA Tool Set version 3.0 of August, 2003.
Copyright (c) 1994-2003 by Todd M. Austin, Ph.D. and SimpleScalar, LLC.
All Rights Reserved. This version of SimpleScalar is licensed for academic
non-commercial use.  No portion of this work may be used by any commercial
entity, or for any commercial purpose, without the prior written permission
of SimpleScalar, LLC (info@simplescalar.com).

Killed
****** program returns ERROR 35072
Post-run li
rm -f -r *.lsp li.*
