reading benchmark database ./bench.db
Doing ijpeg
Installing ijpeg
ln -s /u/greggbyr/Documents/ece587/proj_git/simulator/bench/little/ijpeg.ss run.ijpeg
Pre-run ijpeg
cp /u/greggbyr/Documents/ece587/proj_git/simulator/input/ref/vigo.* .
Run ijpeg
/u/greggbyr/Documents/ece587/proj_git/simulator/ss3/sim-outorder -fastfwd 50000000 -max:inst 10000000 -bpred tsbp -bpred:tsbp 1 32768 15 1 30 run.ijpeg -image_file vigo.ppm -compression.quality 90 -compression.optimize_coding 0 -compression.smoothing_factor 90 -difference.image 1 -difference.x_stride 10 -difference.y_stride 10 -verbose 1 -GO.findoptcomp > vigo.out
sim-outorder: SimpleScalar/PISA Tool Set version 3.0 of August, 2003.
Copyright (c) 1994-2003 by Todd M. Austin, Ph.D. and SimpleScalar, LLC.
All Rights Reserved. This version of SimpleScalar is licensed for academic
non-commercial use.  No portion of this work may be used by any commercial
entity, or for any commercial purpose, without the prior written permission
of SimpleScalar, LLC (info@simplescalar.com).

Killed
****** program returns ERROR 35072
Post-run ijpeg
rm -f -r vigo.*
