reading benchmark database ./bench.db
Doing vpr
Installing vpr
ln -s /u/greggbyr/Documents/ece587/simulator/bench/little/vpr_alpha.ss run.vpr
Pre-run vpr
cp /u/greggbyr/Documents/ece587/simulator/input/ref/arch.in . ; cp /u/greggbyr/Documents/ece587/simulator/input/ref/net.in .
Run vpr
/u/greggbyr/Documents/ece587/simulator/ss3/sim-outorder -fastfwd 50000000 -max:inst 10000000 -bpred 2lev -bpred:2lev 1 16384 14 1 run.vpr net.in arch.in place.out dum.out -nodisp -place_only -init_t 5 -exit_t 0.005 -alpha_t 0.9412 -inner_num 2 > place_log.out > place_log.out
sim-outorder: SimpleScalar/PISA Tool Set version 3.0 of August, 2003.
Copyright (c) 1994-2003 by Todd M. Austin, Ph.D. and SimpleScalar, LLC.
All Rights Reserved. This version of SimpleScalar is licensed for academic
non-commercial use.  No portion of this work may be used by any commercial
entity, or for any commercial purpose, without the prior written permission
of SimpleScalar, LLC (info@simplescalar.com).

fatal: cannot open executable `run.vpr'
****** program returns ERROR 256
Post-run vpr
rm -f -r arch.in ; rm -f -r net.in
