reading benchmark database ./bench.db
Doing m88ksim
Installing m88ksim
ln -s /u/greggbyr/Documents/ece587/proj_git/simulator/bench/little/m88ksim.ss run.m88ksim
Pre-run m88ksim
cp /u/greggbyr/Documents/ece587/proj_git/simulator/input/ref/ctl.in m88ksim.in ; cp /u/greggbyr/Documents/ece587/proj_git/simulator/input/ref/*.big . 
Run m88ksim
/u/greggbyr/Documents/ece587/proj_git/simulator/ss3/sim-outorder -fastfwd 50000000 -max:inst 10000000 -bpred tsbp -bpred:tsbp 1 32768 15 1 30 run.m88ksim -c < m88ksim.in > m88ksim.out
sim-outorder: SimpleScalar/PISA Tool Set version 3.0 of August, 2003.
Copyright (c) 1994-2003 by Todd M. Austin, Ph.D. and SimpleScalar, LLC.
All Rights Reserved. This version of SimpleScalar is licensed for academic
non-commercial use.  No portion of this work may be used by any commercial
entity, or for any commercial purpose, without the prior written permission
of SimpleScalar, LLC (info@simplescalar.com).

Killed
****** program returns ERROR 35072
Post-run m88ksim
rm -f -r m88ksim.* m88ksim.in *.big
