reading benchmark database ./bench.db
Doing wave5
Installing wave5
ln -s /u/greggbyr/Documents/ece587/simulator/bench/little/wave5.ss run.wave5
Pre-run wave5
cp /u/greggbyr/Documents/ece587/simulator/input/ref/wave5.* .
cp: cannot stat '/u/greggbyr/Documents/ece587/simulator/input/ref/wave5.*': No such file or directory
Run wave5
/u/greggbyr/Documents/ece587/simulator/ss3/sim-outorder -fastfwd 50000000 -max:inst 10000000 run.wave5  < wave5.in > wave5.out
sh: 1: cannot open wave5.in: No such file
****** program returns ERROR 512
Post-run wave5
rm -f -r wave5.* WAVE.*
