reading benchmark database ./bench.db
Doing gcc2k
Installing gcc2k
ln -s /u/greggbyr/Documents/ece587/simulator/bench/little/gcc_alpha.ss run.gcc2k
Pre-run gcc2k
cp /u/greggbyr/Documents/ece587/simulator/input/ref/cccp.i .
Run gcc2k
/u/greggbyr/Documents/ece587/simulator/ss3/sim-outorder -fastfwd 50000000 -max:inst 10000000 run.gcc2k cccp.i -o cccp.s > cccp.out > cccp.s
sim-outorder: SimpleScalar/PISA Tool Set version 3.0 of August, 2003.
Copyright (c) 1994-2003 by Todd M. Austin, Ph.D. and SimpleScalar, LLC.
All Rights Reserved. This version of SimpleScalar is licensed for academic
non-commercial use.  No portion of this work may be used by any commercial
entity, or for any commercial purpose, without the prior written permission
of SimpleScalar, LLC (info@simplescalar.com).

fatal: cannot open executable `run.gcc2k'
****** program returns ERROR 256
Post-run gcc2k
rm -f -r cccp.i 
