reading benchmark database ./bench.db
Doing applu
Installing applu
ln -s /u/greggbyr/Documents/ece587/proj_git/simulator/bench/little/applu.ss run.applu
Pre-run applu
cp /u/greggbyr/Documents/ece587/proj_git/simulator/input/ref/applu.* .
cp: cannot stat '/u/greggbyr/Documents/ece587/proj_git/simulator/input/ref/applu.*': No such file or directory
Run applu
/u/greggbyr/Documents/ece587/proj_git/simulator/ss3/sim-outorder -fastfwd 50000000 -max:inst 10000000 -bpred tsbp -bpred:tsbp 1 32768 15 1 16 run.applu  > applu.out
sim-outorder: SimpleScalar/PISA Tool Set version 3.0 of August, 2003.
Copyright (c) 1994-2003 by Todd M. Austin, Ph.D. and SimpleScalar, LLC.
All Rights Reserved. This version of SimpleScalar is licensed for academic
non-commercial use.  No portion of this work may be used by any commercial
entity, or for any commercial purpose, without the prior written permission
of SimpleScalar, LLC (info@simplescalar.com).

fatal: cannot open executable `run.applu'
****** program returns ERROR 256
Post-run applu
rm -f -r applu.*
