reading benchmark database ./bench.db
Doing su2cor
Installing su2cor
ln -s /u/greggbyr/Documents/ece587/proj_git/simulator/bench/little/su2cor.ss run.su2cor
Pre-run su2cor
cp /u/greggbyr/Documents/ece587/proj_git/simulator/input/ref/su2cor.* . ; cp /u/greggbyr/Documents/ece587/proj_git/simulator/input/ref/SU2COR.MODEL . 
cp: cannot stat '/u/greggbyr/Documents/ece587/proj_git/simulator/input/ref/su2cor.*': No such file or directory
cp: cannot stat '/u/greggbyr/Documents/ece587/proj_git/simulator/input/ref/SU2COR.MODEL': No such file or directory
Run su2cor
/u/greggbyr/Documents/ece587/proj_git/simulator/ss3/sim-outorder -fastfwd 50000000 -max:inst 10000000 -bpred tsbp -bpred:tsbp 1 1048576 20 1 16 run.su2cor  < su2cor.in > su2cor.out
sh: 1: cannot open su2cor.in: No such file
****** program returns ERROR 512
Post-run su2cor
rm -f -r su2cor.* SU2COR.*
