reading benchmark database ./bench.db
Doing apsi
Installing apsi
ln -s /u/greggbyr/Documents/ece587/proj_git/simulator/bench/little/apsi.ss run.apsi
Pre-run apsi
cp /u/greggbyr/Documents/ece587/proj_git/simulator/input/ref/apsi.in .
cp: cannot stat '/u/greggbyr/Documents/ece587/proj_git/simulator/input/ref/apsi.in': No such file or directory
Run apsi
/u/greggbyr/Documents/ece587/proj_git/simulator/ss3/sim-outorder -fastfwd 50000000 -max:inst 10000000 -bpred tsbp -bpred:tsbp 1 16384 14 1 30 run.apsi  > apsi.out
sim-outorder: SimpleScalar/PISA Tool Set version 3.0 of August, 2003.
Copyright (c) 1994-2003 by Todd M. Austin, Ph.D. and SimpleScalar, LLC.
All Rights Reserved. This version of SimpleScalar is licensed for academic
non-commercial use.  No portion of this work may be used by any commercial
entity, or for any commercial purpose, without the prior written permission
of SimpleScalar, LLC (info@simplescalar.com).

Killed
****** program returns ERROR 35072
Post-run apsi
rm -f -r apsi.*
