reading benchmark database ./bench.db
Doing hydro2d
Installing hydro2d
ln -s /u/greggbyr/Documents/ece587/simulator/bench/little/hydro2d.ss run.hydro2d
Pre-run hydro2d
cp /u/greggbyr/Documents/ece587/simulator/input/ref/hydro2d.* . ; cp /u/greggbyr/Documents/ece587/simulator/input/ref/HYDRO2D.MODEL .
cp: cannot stat '/u/greggbyr/Documents/ece587/simulator/input/ref/hydro2d.*': No such file or directory
cp: cannot stat '/u/greggbyr/Documents/ece587/simulator/input/ref/HYDRO2D.MODEL': No such file or directory
Run hydro2d
/u/greggbyr/Documents/ece587/simulator/ss3/sim-outorder -fastfwd 50000000 -max:inst 10000000 -bpred 2lev -bpred:2lev 1 65536 16 1 run.hydro2d  < hydro2d.in > hydro2d.out
sh: 1: cannot open hydro2d.in: No such file
****** program returns ERROR 512
Post-run hydro2d
rm -f -r hydro2d.* HYDRO2D.*
